Version 4
SHEET 1 880 680
WIRE -432 -112 -512 -112
WIRE -288 -112 -432 -112
WIRE -192 -112 -288 -112
WIRE -32 -112 -112 -112
WIRE -144 -32 -192 -32
WIRE -512 -16 -512 -112
WIRE -432 -16 -432 -112
WIRE -144 -16 -144 -32
WIRE -688 80 -768 80
WIRE -672 80 -688 80
WIRE -512 80 -512 64
WIRE -512 80 -592 80
WIRE -384 80 -512 80
WIRE -192 96 -192 -32
WIRE -32 96 -32 -112
WIRE 160 96 -32 96
WIRE 304 96 240 96
WIRE 416 96 304 96
WIRE 576 96 496 96
WIRE -384 144 -384 80
WIRE -288 144 -288 -112
WIRE -288 144 -320 144
WIRE -224 144 -288 144
WIRE -32 144 -32 96
WIRE -32 144 -64 144
WIRE 304 144 304 96
WIRE 576 144 576 96
WIRE -688 160 -688 80
WIRE -768 176 -768 160
WIRE -288 208 -320 208
WIRE -224 208 -288 208
WIRE -32 208 -64 208
WIRE -32 256 -32 208
WIRE 160 256 -32 256
WIRE 304 256 304 208
WIRE 304 256 240 256
WIRE 416 256 304 256
WIRE 576 256 576 208
WIRE 576 256 496 256
WIRE -768 288 -768 256
WIRE -688 288 -688 224
WIRE -688 288 -768 288
WIRE -672 288 -688 288
WIRE -432 288 -432 64
WIRE -432 288 -592 288
WIRE -384 288 -384 208
WIRE -384 288 -432 288
WIRE -288 368 -288 208
WIRE -192 368 -288 368
WIRE -32 368 -32 256
WIRE -32 368 -112 368
FLAG 576 32 0
FLAG 576 320 0
FLAG -144 64 0
FLAG -192 256 0
SYMBOL voltage -768 160 R0
WINDOW 123 24 124 Left 2
WINDOW 39 0 0 Left 2
SYMATTR Value2 AC 1
SYMATTR InstName V1
SYMATTR Value ""
SYMBOL res 256 80 R90
WINDOW 0 0 56 VBottom 2
WINDOW 3 32 56 VTop 2
SYMATTR InstName R1
SYMATTR Value 10
SYMBOL res 256 240 R90
WINDOW 0 0 56 VBottom 2
WINDOW 3 32 56 VTop 2
SYMATTR InstName R2
SYMATTR Value 10
SYMBOL cap 288 144 R0
SYMATTR InstName C1
SYMATTR Value 4n7
SYMBOL ind 512 80 R90
WINDOW 0 5 56 VBottom 2
WINDOW 3 32 56 VTop 2
SYMATTR InstName L1
SYMATTR Value 4µ7
SYMBOL ind 512 240 R90
WINDOW 0 5 56 VBottom 2
WINDOW 3 32 56 VTop 2
SYMATTR InstName L2
SYMATTR Value 4µ7
SYMBOL cap 560 144 R0
SYMATTR InstName C4
SYMATTR Value 22n
SYMBOL Opamps\\LTC6362 -160 176 R0
SYMATTR InstName U1
SYMBOL cap 560 256 R0
SYMATTR InstName C2
SYMATTR Value 22n
SYMBOL cap 560 32 R0
SYMATTR InstName C3
SYMATTR Value 22n
SYMBOL voltage -144 -32 R0
WINDOW 123 0 0 Left 2
WINDOW 39 0 0 Left 2
SYMATTR InstName V2
SYMATTR Value 5
SYMBOL res -96 -128 R90
WINDOW 0 0 56 VBottom 2
WINDOW 3 32 56 VTop 2
SYMATTR InstName R3
SYMATTR Value 620
SYMBOL res -96 352 R90
WINDOW 0 0 56 VBottom 2
WINDOW 3 32 56 VTop 2
SYMATTR InstName R4
SYMATTR Value 620
SYMBOL cap -320 128 R90
WINDOW 0 0 32 VBottom 2
WINDOW 3 -19 -4 VTop 2
SYMATTR InstName C5
SYMATTR Value 1µ
SYMBOL cap -320 192 R90
WINDOW 0 59 70 VBottom 2
WINDOW 3 32 32 VTop 2
SYMATTR InstName C6
SYMATTR Value 1µ
SYMBOL res -448 -32 R0
SYMATTR InstName R5
SYMATTR Value 200
SYMBOL res -528 -32 R0
SYMATTR InstName R6
SYMATTR Value 200
SYMBOL res -784 64 R0
SYMATTR InstName R7
SYMATTR Value 1k2
SYMBOL cap -704 160 R0
SYMATTR InstName C7
SYMATTR Value 0p7
SYMBOL ind -576 64 R90
WINDOW 0 5 56 VBottom 2
WINDOW 3 32 56 VTop 2
SYMATTR InstName L3
SYMATTR Value 0n7
SYMBOL ind -576 272 R90
WINDOW 0 5 56 VBottom 2
WINDOW 3 32 56 VTop 2
SYMATTR InstName L4
SYMATTR Value 0n7
TEXT -24 408 Left 2 !.ac lin 1000 100k 1000k
