Version 4
SHEET 1 880 680
SYMBOL Opamps\\LTC6362 208 160 R0
SYMATTR InstName U1
